Mason's Sims/PTI/PSSE35/EXAMPLE/iec60909_testnetwork_50Hz_IndMachine.raw
@!IC,SBASE,REV,XFRRAT,NXFRAT,BASFRQ
0,  100.00, 35,     0,     1, 50.00     / PSS(R)E-35.4    MON, MAR 28 2022  14:18
IEC 60909 - 2001: SC CURRENTS IN THREE PHASE A.C. SYSTEMS
FIGURE 16 (PP 121, 60909-4): HIGH VOLTAGE A.C. TEST NETWORK
GENERAL, THRSHZ=0.0001, PQBRAK=0.7, BLOWUP=5.0, MaxIsolLvls=4, CAMaxReptSln=20, ChkDupCntLbl=0
GAUSS, ITMX=100, ACCP=1.6, ACCQ=1.6, ACCM=1.0, TOL=0.0001
NEWTON, ITMXN=20, ACCN=1.0, TOLN=0.1, VCTOLQ=0.1, VCTOLV=0.00001, DVLIM=0.99, NDVFCT=0.99
ADJUST, ADJTHR=0.005, ACCTAP=1.0, TAPLIM=0.05, SWVBND=100.0, MXTPSS=99, MXSWIM=10
TYSL, ITMXTY=20, ACCTY=1.0, TOLTY=0.00001
SOLVER, FDNS, ACTAPS=0, AREAIN=0, PHSHFT=0, DCTAPS=1, SWSHNT=1, FLATST=0, VARLIM=99, NONDIV=0
RATING, 1, "RATE1 ", "RATING SET 1                    "
RATING, 2, "RATE2 ", "RATING SET 2                    "
RATING, 3, "RATE3 ", "RATING SET 3                    "
RATING, 4, "RATE4 ", "RATING SET 4                    "
RATING, 5, "RATE5 ", "RATING SET 5                    "
RATING, 6, "RATE6 ", "RATING SET 6                    "
RATING, 7, "RATE7 ", "RATING SET 7                    "
RATING, 8, "RATE8 ", "RATING SET 8                    "
RATING, 9, "RATE9 ", "RATING SET 9                    "
RATING,10, "RATE10", "RATING SET 10                   "
RATING,11, "RATE11", "RATING SET 11                   "
RATING,12, "RATE12", "RATING SET 12                   "
0 / END OF SYSTEM-WIDE DATA, BEGIN BUS DATA
@!   I,'NAME        ', BASKV, IDE,AREA,ZONE,OWNER, VM,        VA,    NVHI,   NVLO,   EVHI,   EVLO
     1,'BUS1        ', 380.0000,3,   1,   1,   1,1.00000,   0.0000,1.10000,0.90000,1.10000,0.90000
     2,'BUS2        ', 110.0000,1,   1,   1,   1,0.97904,  -9.2057,1.10000,0.90000,1.10000,0.90000
     3,'BUS3        ', 110.0000,1,   1,   1,   1,0.64883,  -7.7543,1.10000,0.90000,1.10000,0.90000
     4,'BUS4        ', 110.0000,1,   1,   1,   1,0.52266,  -5.5255,1.10000,0.90000,1.10000,0.90000
     5,'BUS5        ', 110.0000,2,   1,   1,   1,1.00000, -11.3078,1.10000,0.90000,1.10000,0.90000
     6,'BUS6        ',  10.0000,2,   1,   1,   1,1.00000, -12.4511,1.10000,0.90000,1.10000,0.90000
     7,'BUS7        ',  10.0000,1,   1,   1,   1,0.98766, -12.6842,1.10000,0.90000,1.10000,0.90000
     8,'BUS8        ',  30.0000,1,   1,   1,   1,0.89839,-159.2221,1.10000,0.90000,1.10000,0.90000
    31,'BUS31       ',  10.0000,2,   1,   1,   1,1.00000,  28.4594,1.10000,0.90000,1.10000,0.90000
    41,'BUS41       ',  21.0000,2,   1,   1,   1,1.00000,  29.8492,1.10000,0.90000,1.10000,0.90000
    81,'BUS81       ',  30.0000,1,   1,   1,   1,0.89839,-159.2221,1.10000,0.90000,1.10000,0.90000
0 / END OF BUS DATA, BEGIN LOAD DATA
@!   I,'ID',STAT,AREA,ZONE,      PL,        QL,        IP,        IQ,        YP,        YQ, OWNER,SCALE,INTRPT,  DGENP,     DGENQ,DGENF,'  LOAD TYPE '
0 / END OF LOAD DATA, BEGIN FIXED SHUNT DATA
@!   I,'ID',STATUS,  GL,        BL
     1,'1 ',1,     0.000,     0.000
     2,'1 ',1,     0.000,     0.000
0 / END OF FIXED SHUNT DATA, BEGIN GENERATOR DATA
@!   I,'ID',      PG,        QG,        QT,        QB,     VS,    IREG,NREG,     MBASE,     ZR,         ZX,         RT,         XT,     GTAP,STAT, RMPCT,      PT,        PB,BASLOD,O1,    F1,  O2,    F2,  O3,    F3,  O4,    F4,WMOD, WPF
     1,'Q1',   457.126,   197.365,  9999.000, -9999.000,1.00000,     1,   0,   100.000, 3.97843E-4, 3.97843E-3, 0.00000E+0, 0.00000E+0,1.00000,1,  100.0,  9999.000, -9999.000, 0,   1,1.0000
     5,'Q2',     0.000,  2382.951,  9999.000, -9999.000,1.00000,     5,   0,   100.000, 3.26412E-3, 3.26412E-2, 0.00000E+0, 0.00000E+0,1.00000,1,  100.0,  9999.000, -9999.000, 0,   1,1.0000
     6,'G3',     0.000,     3.609,  9999.000, -9999.000,1.00000,     6,   0,    10.000, 1.80000E-3, 1.10250E-1, 0.00000E+0, 0.00000E+0,1.00000,1,  100.0,  9999.000, -9999.000, 0,   1,1.0000
    31,'G2',     0.000,  1226.179,  9999.000, -9999.000,1.00000,    31,   0,   100.000, 5.00000E-3, 1.76400E-1, 0.00000E+0, 0.00000E+0,1.00000,1,  100.0,  9999.000, -9999.000, 0,   1,1.0000
    41,'G1',     0.000,  1404.815,  9999.000, -9999.000,1.00000,    41,   0,   150.000, 6.80272E-4, 1.40000E-1, 0.00000E+0, 0.00000E+0,1.00000,1,  100.0,  9999.000, -9999.000, 0,   1,1.0000
0 / END OF GENERATOR DATA, BEGIN BRANCH DATA
@!   I,     J,'CKT',      R,           X,       B,                   'N A M E'                 ,  RATE1,  RATE2,  RATE3,  RATE4,  RATE5,  RATE6,  RATE7,  RATE8,  RATE9, RATE10, RATE11, RATE12,   GI,      BI,      GJ,      BJ,STAT,MET, LEN,  O1,  F1,    O2,  F2,    O3,  F3,    O4,  F4
     2,     3,'L1', 1.98347E-02, 6.44628E-02,0.00000,'                                        ',   0.00,   0.00,   0.00,   0.00,   0.00,   0.00,   0.00,   0.00,   0.00,   0.00,   0.00,   0.00, 0.00000, 0.00000, 0.00000, 0.00000,1,1,  0.00,   1,1.0000
     2,     5,'31', 4.95868E-03, 1.61157E-02,0.00000,'                                        ',   0.00,   0.00,   0.00,   0.00,   0.00,   0.00,   0.00,   0.00,   0.00,   0.00,   0.00,   0.00, 0.00000, 0.00000, 0.00000, 0.00000,1,1,  0.00,   1,1.0000
     2,     5,'32', 4.95868E-03, 1.61157E-02,0.00000,'                                        ',   0.00,   0.00,   0.00,   0.00,   0.00,   0.00,   0.00,   0.00,   0.00,   0.00,   0.00,   0.00, 0.00000, 0.00000, 0.00000, 0.00000,1,1,  0.00,   1,1.0000
     3,     4,'L2', 9.91736E-03, 3.22314E-02,0.00000,'                                        ',   0.00,   0.00,   0.00,   0.00,   0.00,   0.00,   0.00,   0.00,   0.00,   0.00,   0.00,   0.00, 0.00000, 0.00000, 0.00000, 0.00000,1,1,  0.00,   1,1.0000
     3,     5,'L4', 7.93388E-03, 3.20661E-02,0.00000,'                                        ',   0.00,   0.00,   0.00,   0.00,   0.00,   0.00,   0.00,   0.00,   0.00,   0.00,   0.00,   0.00, 0.00000, 0.00000, 0.00000, 0.00000,1,1,  0.00,   1,1.0000
     4,     5,'L5', 1.48760E-02, 4.78512E-02,0.00000,'                                        ',   0.00,   0.00,   0.00,   0.00,   0.00,   0.00,   0.00,   0.00,   0.00,   0.00,   0.00,   0.00, 0.00000, 0.00000, 0.00000, 0.00000,1,1,  0.00,   1,1.0000
     6,     7,'L6', 8.20000E-02, 8.60000E-02,0.00000,'                                        ',   0.00,   0.00,   0.00,   0.00,   0.00,   0.00,   0.00,   0.00,   0.00,   0.00,   0.00,   0.00, 0.00000, 0.00000, 0.00000, 0.00000,1,1,  0.00,   1,1.0000
0 / END OF BRANCH DATA, BEGIN SYSTEM SWITCHING DEVICE DATA
@!   I,     J,'CKT',          X,  RATE1,  RATE2,  RATE3,  RATE4,  RATE5,  RATE6,  RATE7,  RATE8,  RATE9, RATE10, RATE11, RATE12, STAT,NSTAT,  MET,STYPE,'NAME'
0 / END OF SYSTEM SWITCHING DEVICE DATA, BEGIN TRANSFORMER DATA
@!   I,     J,     K,'CKT',CW,CZ,CM,     MAG1,        MAG2,NMETR,               'N A M E',               STAT,O1,  F1,    O2,  F2,    O3,  F3,    O4,  F4,     'VECGRP', ZCOD
@!   R1-2,       X1-2, SBASE1-2,     R2-3,       X2-3, SBASE2-3,     R3-1,       X3-1, SBASE3-1, VMSTAR,   ANSTAR
@!WINDV1, NOMV1,   ANG1, RATE1-1, RATE1-2, RATE1-3, RATE1-4, RATE1-5, RATE1-6, RATE1-7, RATE1-8, RATE1-9,RATE1-10,RATE1-11,RATE1-12,COD1,CONT1,NOD1,  RMA1,   RMI1,   VMA1,   VMI1, NTP1,TAB1, CR1,    CX1,  CNXA1
@!WINDV2, NOMV2,   ANG2, RATE2-1, RATE2-2, RATE2-3, RATE2-4, RATE2-5, RATE2-6, RATE2-7, RATE2-8, RATE2-9,RATE2-10,RATE2-11,RATE2-12,COD2,CONT2,NOD2,  RMA2,   RMI2,   VMA2,   VMI2, NTP2,TAB2, CR2,    CX2,  CNXA2
@!WINDV3, NOMV3,   ANG3, RATE3-1, RATE3-2, RATE3-3, RATE3-4, RATE3-5, RATE3-6, RATE3-7, RATE3-8, RATE3-9,RATE3-10,RATE3-11,RATE3-12,COD3,CONT3,NOD3,  RMA3,   RMI3,   VMA3,   VMI3, NTP3,TAB3, CR3,    CX3,  CNXA3
     1,     2,     8,'T3', 2, 2, 1, 0.00000E+00, 0.00000E+00,2,'T3                                      ',1,   1,1.0000,   0,1.0000,   0,1.0000,   0,1.0000,'            ', 0
 2.60000E-03, 2.09984E-01, 350.00, 1.60000E-03, 6.99817E-02,  50.00, 1.60000E-03, 9.99872E-02,  50.00,0.89839,  -9.2221
400.000,  0.000,  0.000,  350.00,    0.00,    0.00,    0.00,    0.00,    0.00,    0.00,    0.00,    0.00,    0.00,    0.00,    0.00, 0,      0,   0,1.10000,0.90000,1.10000,0.90000,  33, 0,0.00000,0.00000, 0.000
120.000,  0.000,  0.000,   50.00,    0.00,    0.00,    0.00,    0.00,    0.00,    0.00,    0.00,    0.00,    0.00,    0.00,    0.00, 0,      0,   0,1.10000,0.90000,1.10000,0.90000,  33, 0,0.00000,0.00000, 0.000
30.0000,  0.000,-150.00,   50.00,    0.00,    0.00,    0.00,    0.00,    0.00,    0.00,    0.00,    0.00,    0.00,    0.00,    0.00, 0,      0,   0,1.10000,0.90000,1.10000,0.90000,  33, 0,0.00000,0.00000, 0.000
     1,     2,    81,'T4', 2, 2, 1, 0.00000E+00, 0.00000E+00,2,'T4                                      ',1,   1,1.0000,   0,1.0000,   0,1.0000,   0,1.0000,'            ', 0
 2.60000E-03, 2.09984E-01, 350.00, 1.60000E-03, 6.99817E-02,  50.00, 1.60000E-03, 9.99872E-02,  50.00,0.89839,  -9.2221
400.000,  0.000,  0.000,  350.00,    0.00,    0.00,    0.00,    0.00,    0.00,    0.00,    0.00,    0.00,    0.00,    0.00,    0.00, 0,      0,   0,1.10000,0.90000,1.10000,0.90000,  33, 0,0.00000,0.00000, 0.000
120.000,  0.000,  0.000,   50.00,    0.00,    0.00,    0.00,    0.00,    0.00,    0.00,    0.00,    0.00,    0.00,    0.00,    0.00, 0,      0,   0,1.10000,0.90000,1.10000,0.90000,  33, 0,0.00000,0.00000, 0.000
30.0000,  0.000,-150.00,   50.00,    0.00,    0.00,    0.00,    0.00,    0.00,    0.00,    0.00,    0.00,    0.00,    0.00,    0.00, 0,      0,   0,1.10000,0.90000,1.10000,0.90000,  33, 0,0.00000,0.00000, 0.000
     3,    31,     0,'T2', 2, 2, 1, 0.00000E+00, 0.00000E+00,2,'T2                                      ',1,   1,1.0000,   0,1.0000,   0,1.0000,   0,1.0000,'            '
 5.00000E-03, 1.19896E-01, 100.00
120.000,  0.000,150.000,  100.00,    0.00,    0.00,    0.00,    0.00,    0.00,    0.00,    0.00,    0.00,    0.00,    0.00,    0.00, 0,      0,   0,1.10000,0.90000,1.10000,0.90000,  33, 0,0.00000,0.00000, 0.000
10.5000,   0.00
     4,    41,     0,'T1', 2, 2, 1, 0.00000E+00, 0.00000E+00,1,'T1                                      ',1,   1,1.0000,   0,1.0000,   0,1.0000,   0,1.0000,'            '
 5.00000E-03, 1.59922E-01, 150.00
115.000,  0.000,150.000,  150.00,    0.00,    0.00,    0.00,    0.00,    0.00,    0.00,    0.00,    0.00,    0.00,    0.00,    0.00, 0,      0,   0,1.10000,0.90000,1.10000,0.90000,  33, 0,0.00000,0.00000, 0.000
21.0000,   0.00
     5,     6,     0,'T5', 2, 2, 1, 0.00000E+00, 0.00000E+00,2,'T5                                      ',1,   1,1.0000,   0,1.0000,   0,1.0000,   0,1.0000,'            '
 5.00000E-03, 1.19896E-01,  31.50
115.000,  0.000,  0.000,   31.50,    0.00,    0.00,    0.00,    0.00,    0.00,    0.00,    0.00,    0.00,    0.00,    0.00,    0.00, 0,      0,   0,1.10000,0.90000,1.10000,0.90000,  33, 0,0.00000,0.00000, 0.000
10.5000,   0.00
     5,     6,     0,'T6', 2, 2, 1, 0.00000E+00, 0.00000E+00,2,'T6                                      ',1,   1,1.0000,   0,1.0000,   0,1.0000,   0,1.0000,'            '
 5.00000E-03, 1.19896E-01,  31.50
115.000,  0.000,  0.000,   31.50,    0.00,    0.00,    0.00,    0.00,    0.00,    0.00,    0.00,    0.00,    0.00,    0.00,    0.00, 0,      0,   0,1.10000,0.90000,1.10000,0.90000,  33, 0,0.00000,0.00000, 0.000
10.5000,   0.00
0 / END OF TRANSFORMER DATA, BEGIN AREA DATA
@! I,   ISW,    PDES,     PTOL,    'ARNAME'
0 / END OF AREA DATA, BEGIN TWO-TERMINAL DC DATA
@!  'NAME',   MDC,    RDC,     SETVL,    VSCHD,    VCMOD,    RCOMP,   DELTI,METER   DCVMIN,CCCITMX,CCCACC
@! IPR,NBR,  ANMXR,  ANMNR,   RCR,    XCR,   EBASR,  TRR,    TAPR,   TMXR,   TMNR,   STPR,    ICR,NDR,   IFR,   ITR,'IDR', XCAPR
@! IPI,NBI,  ANMXI,  ANMNI,   RCI,    XCI,   EBASI,  TRI,    TAPI,   TMXI,   TMNI,   STPI,    ICI,NDI,   IFI,   ITI,'IDI', XCAPI
0 / END OF TWO-TERMINAL DC DATA, BEGIN VSC DC LINE DATA
@!  'NAME',   MDC,  RDC,   O1,  F1,    O2,  F2,    O3,  F3,    O4,  F4
@!IBUS,TYPE,MODE,  DCSET,  ACSET,  ALOSS,  BLOSS,MINLOSS,  SMAX,   IMAX,   PWF,     MAXQ,   MINQ, VSREG,NREG, RMPCT
0 / END OF VSC DC LINE DATA, BEGIN IMPEDANCE CORRECTION DATA
@!I,  T1,   Re(F1), Im(F1),   T2,   Re(F2), Im(F2),   T3,   Re(F3), Im(F3),   T4,   Re(F4), Im(F4),   T5,   Re(F5), Im(F5),   T6,   Re(F6), Im(F6)
@!    T7,   Re(F7), Im(F7),   T8,   Re(F8), Im(F8),   T9,   Re(F9), Im(F9),   T10, Re(F10),Im(F10),   T11, Re(F11),Im(F11),   T12, Re(F12),Im(F12)
@!      ...
0 / END OF IMPEDANCE CORRECTION DATA, BEGIN MULTI-TERMINAL DC DATA
@!  'NAME',    NCONV,NDCBS,NDCLN,  MDC, VCONV,   VCMOD, VCONVN
@!  IB, N,  ANGMX,  ANGMN,   RC,     XC,     EBAS,   TR,    TAP,    TPMX,   TPMN,   TSTP,   SETVL,   DCPF,  MARG,CNVCOD
@!IDC, IB,AREA,ZONE,   'DCNAME',  IDC2, RGRND,OWNER
@!IDC,JDC,'DCCKT',MET,  RDC,      LDC
0 / END OF MULTI-TERMINAL DC DATA, BEGIN MULTI-SECTION LINE DATA
@!   I,     J,'ID',MET,DUM1,  DUM2,  DUM3,  DUM4,  DUM5,  DUM6,  DUM7,  DUM8,  DUM9
0 / END OF MULTI-SECTION LINE DATA, BEGIN ZONE DATA
@! I,   'ZONAME'
0 / END OF ZONE DATA, BEGIN INTER-AREA TRANSFER DATA
@!ARFROM,ARTO,'TRID',PTRAN
0 / END OF INTER-AREA TRANSFER DATA, BEGIN OWNER DATA
@! I,   'OWNAME'
0 / END OF OWNER DATA, BEGIN FACTS DEVICE DATA
@!  'NAME',         I,     J,MODE,PDES,   QDES,  VSET,   SHMX,   TRMX,   VTMN,   VTMX,   VSMX,    IMX,   LINX,   RMPCT,OWNER,  SET1,    SET2,VSREF, FCREG,NREG,   'MNAME'
0 / END OF FACTS DEVICE DATA, BEGIN SWITCHED SHUNT DATA
@!   I,'ID',MODSW,ADJM,ST, VSWHI,  VSWLO, SWREG,NREG, RMPCT,   'RMIDNT',     BINIT,S1,N1,    B1, S2,N2,    B2, S3,N3,    B3, S4,N4,    B4, S5,N5,    B5, S6,N6,    B6, S7,N7,    B7, S8,N8,    B8
0 / END OF SWITCHED SHUNT DATA, BEGIN GNE DATA
@!  'NAME',        'MODEL',     NTERM,BUS1...BUSNTERM,NREAL,NINTG,NCHAR
@!ST,OWNER,NMETR
@! REAL1...REAL(MIN(10,NREAL))
@! INTG1...INTG(MIN(10,NINTG))
@! CHAR1...CHAR(MIN(10,NCHAR))
0 / END OF GNE DATA, BEGIN INDUCTION MACHINE DATA
@!   I,'ID',ST,SC,DC,AREA,ZONE,OWNER,TC,BC, MBASE,RATEKV,PC,  PSET,     H,      A,      B,      D,      E,     RA,        XA,        XM,        R1,        X1,        R2,        X2,        X3,       E1,    SE1,   E2,    SE2,   IA1,   IA2, XAMULT
     7,"M1", 1, 1, 2,   1,   1,   1, 1, 1,  5.000, 10.000,1, 5.0000,  1.000,  1.000,  1.000,  1.000,  1.000
     7,"M2", 1, 1, 2,   1,   1,   1, 1, 1,  2.000, 10.000,1, 2.0000,  1.000,  1.000,  1.000,  1.000,  1.000
     7,"M3", 1, 1, 2,   1,   1,   1, 1, 1,  2.000, 10.000,1, 2.0000,  1.000,  1.000,  1.000,  1.000,  1.000
0 / END OF INDUCTION MACHINE DATA, BEGIN SUBSTATION DATA
0 / END OF SUBSTATION DATA
Q
